/*--------------------------------*- C++ -*----------------------------------*\
| =========                 |                                                 |
| \\      /  F ield         | OpenFOAM: The Open Source CFD Toolbox           |
|  \\    /   O peration     | Version:  v2412                                 |
|   \\  /    A nd           | Website:  www.openfoam.com                      |
|    \\/     M anipulation  |                                                 |
\*---------------------------------------------------------------------------*/
FoamFile
{
    version     2.0;
    format      ascii;
    class       dictionary;
    object      blockMeshDict;
}
// * * * * * * * * * * * * * * * * * * * * * * * * * * * * * * * * * * * * * //

scale   1;

vertices
(
    (2 0 0)             //0
    (2 2 0)             //1
    (8 0 0)             //2
    (8 2 0)             //3
    (2 -1 0)            //4
    (8 -1 0)            //5
    (2 0 0.1)           //6
    (2 2 0.1)           //7
    (8 0 0.1)           //8
    (8 2 0.1)           //9
    (2 -1 0.1)          //10
    (8 -1 0.1)          //11
);

blocks
(
    hex (0 2 3 1 6 8 9 7) (25 60 1) simpleGrading (2 30 1)			//top
    hex (4 5 2 0 10 11 8 6) (25 60 1) simpleGrading (2 0.25 1)	 	//bot
);

edges
(
);

boundary
(
    inlet
    {
        type patch;
        faces
        (
            (0 6 7 1)
        );
    }
    outlet
    {
        type patch;
        faces
        (
            (2 8 9 3)
            (5 11 8 2)
        );
    }
    bottom
    {
        type wall;
        faces
        (
            (4 10 6 0)
            (4 10 11 5)
        );
    }
    top
    {
        type patch;
        faces
        (
            (1 7 9 3)
        );
    }
    side
    {
        type empty;
        faces
        (
            (4 5 2 0)
            (0 2 3 1)
            (10 11 8 6)
            (6 8 9 7)
        );
    }
);

mergePatchPairs
(
);


// ************************************************************************* //
