/*--------------------------------*- C++ -*----------------------------------*\
| =========                 |                                                 |
| \\      /  F ield         | OpenFOAM: The Open Source CFD Toolbox           |
|  \\    /   O peration     | Version:  v2412                                 |
|   \\  /    A nd           | Website:  www.openfoam.com                      |
|    \\/     M anipulation  |                                                 |
\*---------------------------------------------------------------------------*/
FoamFile
{
    version     2.0;
    format      ascii;
    class       volScalarField;
    object      T;
}
// * * * * * * * * * * * * * * * * * * * * * * * * * * * * * * * * * * * * * //

dimensions      [0 0 0 1 0 0 0];

internalField   uniform 253;

boundaryField
{
    inlet
    {
        type            fixedValue;
        value           uniform 253;
    }

    outlet
    {
        type            zeroGradient;
    }

    bottom_1
    {
        type            zeroGradient;
    }
	
	bottom_2
    {
        type            zeroGradient;
    }
	
	step
    {
        type            fixedValue;
        value           uniform 400;
    }

    top
    {
        type            zeroGradient;
    }

    side
    {
        type            empty;
    }
}


// ************************************************************************* //
